1b_fixed
                    3D
 Schrodinger Suite 2021-4.
  0  0  0     0  0            999 V3000
M  V30 BEGIN CTAB
M  V30 COUNTS 52 54 0 0 0
M  V30 BEGIN ATOM
M  V30 1 N  18.2650 -13.2410 21.7060 0
M  V30 2 C  18.0670 -11.9440 21.0290 0 CFG=2
M  V30 3 C  17.3960 -13.7800 22.5960 0
M  V30 4 O  16.3980 -13.1680 22.9800 0
M  V30 5 C  16.6630 -11.7540 20.4060 0
M  V30 6 O  16.1640 -12.6470 19.7190 0
M  V30 7 C  19.1630 -11.8940 19.9560 0
M  V30 8 C  17.6500 -15.1800 23.1880 0 CFG=2
M  V30 9 N  16.0420 -10.5940 20.6500 0
M  V30 10 C  20.2630 -12.8150 20.4460 0
M  V30 11 N  16.4090 -15.9680 23.1110 0 CHG=1
M  V30 12 C  18.1360 -15.1120 24.6550 0
M  V30 13 C  14.7040 -10.2160 20.2150 0
M  V30 14 C  19.5460 -13.8410 21.3150 0
M  V30 15 C  19.5610 -14.6150 24.8270 0
M  V30 16 C  13.6410 -10.3570 21.2910 0
M  V30 17 C  19.8040 -13.3100 25.2930 0
M  V30 18 C  12.9050 -11.5530 21.4230 0
M  V30 19 C  21.1140 -12.8170 25.3980 0
M  V30 20 C  11.8940 -11.6570 22.4010 0
M  V30 21 C  22.2000 -13.6410 25.0540 0
M  V30 22 C  11.6200 -10.5700 23.2550 0
M  V30 23 C  21.9700 -14.9620 24.6260 0
M  V30 24 C  12.3720 -9.3840 23.1460 0
M  V30 25 C  20.6530 -15.4490 24.5110 0
M  V30 26 C  13.3730 -9.2780 22.1610 0
M  V30 27 Cl 12.1060 -8.0750 24.2430 0
M  V30 28 H  18.2430 -11.1433 21.7473 0
M  V30 29 H  19.5491 -10.8775 19.8801 0
M  V30 30 H  18.7656 -12.2737 19.0147 0
M  V30 31 H  18.4149 -15.6765 22.5909 0
M  V30 32 H  16.5069 -9.8753 21.1861 0
M  V30 33 H  20.9623 -12.2475 21.0599 0
M  V30 34 H  20.7184 -13.3190 19.5935 0
M  V30 35 H  16.5688 -16.8873 23.4977 0
M  V30 36 H  15.6819 -15.5040 23.6365 0
M  V30 37 H  16.1236 -16.0541 22.1460 0
M  V30 38 H  18.0393 -16.0963 25.1132 0
M  V30 39 H  17.4608 -14.4781 25.2299 0
M  V30 40 H  14.4230 -10.8149 19.3487 0
M  V30 41 H  14.7185 -9.1877 19.8538 0
M  V30 42 H  19.3607 -14.7433 20.7323 0
M  V30 43 H  20.1405 -14.0394 22.2068 0
M  V30 44 H  18.9774 -12.6746 25.5750 0
M  V30 45 H  13.1152 -12.3908 20.7747 0
M  V30 46 H  21.2852 -11.8077 25.7421 0
M  V30 47 H  11.3275 -12.5715 22.4969 0
M  V30 48 H  23.2085 -13.2601 25.1184 0
M  V30 49 H  10.8342 -10.6469 23.9919 0
M  V30 50 H  22.8040 -15.6045 24.3850 0
M  V30 51 H  20.4804 -16.4625 24.1803 0
M  V30 52 H  13.9377 -8.3614 22.0744 0
M  V30 END ATOM
M  V30 BEGIN BOND
M  V30 1 1 1 2
M  V30 2 1 1 14
M  V30 3 1 1 3
M  V30 4 1 2 5
M  V30 5 1 2 7
M  V30 6 1 2 28
M  V30 7 1 3 8
M  V30 8 2 3 4
M  V30 9 2 5 6
M  V30 10 1 5 9
M  V30 11 1 7 10
M  V30 12 1 7 29
M  V30 13 1 7 30
M  V30 14 1 8 11
M  V30 15 1 8 12
M  V30 16 1 8 31
M  V30 17 1 9 13
M  V30 18 1 9 32
M  V30 19 1 10 14
M  V30 20 1 10 33
M  V30 21 1 10 34
M  V30 22 1 11 35
M  V30 23 1 11 36
M  V30 24 1 11 37
M  V30 25 1 12 15
M  V30 26 1 12 38
M  V30 27 1 12 39
M  V30 28 1 13 16
M  V30 29 1 13 40
M  V30 30 1 13 41
M  V30 31 1 14 42
M  V30 32 1 14 43
M  V30 33 1 15 17
M  V30 34 2 15 25
M  V30 35 1 16 18
M  V30 36 2 16 26
M  V30 37 2 17 19
M  V30 38 1 17 44
M  V30 39 2 18 20
M  V30 40 1 18 45
M  V30 41 1 19 21
M  V30 42 1 19 46
M  V30 43 1 20 22
M  V30 44 1 20 47
M  V30 45 2 21 23
M  V30 46 1 21 48
M  V30 47 2 22 24
M  V30 48 1 22 49
M  V30 49 1 23 25
M  V30 50 1 23 50
M  V30 51 1 24 26
M  V30 52 1 24 27
M  V30 53 1 25 51
M  V30 54 1 26 52
M  V30 END BOND
M  V30 END CTAB
M  END
> <i_m_stars>
0

> <s_m_entry_id>
113

> <s_m_entry_name>
Structure113

> <s_m_Source_Path>
/berlin/glirq/projects/abfe_benchmark/cmd-abfe-benchmark/maestro_prep

> <s_m_Source_File>
backup_all.mae

> <i_m_Source_File_Index>
37

> <b_ppw_prepared>
1

> <s_ppw_prepared_with_version>
2021-4

> <b_ppw_created_disulfur>
1

> <b_ppw_converted_selenomethionines>
1

> <r_ppw_preprocess_pH>
7.4

> <s_ppw_het_states>
eJztkzFuw0AMBL8iqBYC8UTKdr4S+AdGulSG/567o5DxGSlTpFgXxmIFeUmu5z7b/D591I/v5bxM63WZmrz8yG1FGrIgN6QjA7kjT8iaZockzUlz0pw0J81Jc9KcNCfN2c1JC9KCtCAtSIue1vRxqrzSsUIabeTBaMczTpp3Gw3nDGs34tWoP1q4eh58NHZe8W6cMKIb51eD0dvbeXijpGGXrU/qjO59sFaFUVAWMhjtkoXesid7NoJdvI/e6iuUmiUWqs0qjYKzUKPmrLVQdpZbqDwHM4rPOUaj71Ide9ui1Kf3uZqXCksaj2X6/Lrd8rv/K0SQCBJBIkgEiSARJIJEkAgSQSJIBIkgESSCRJAIEkEiSASJIBH0K0ErDYkgEfRPCXJrwU8ENUMEiSAR9HcEXR/f8HHO+A==

> <s_ff_OPLSVersion>
OPLS4

> <s_psp_Homology_Source>
template_H

> <s_psp_Homology_Seq>
...........................................................................................................................................................................................................................................................................................................................................................................IVEGSDAEIGMSPWQVMLFRKSPQELLCGASLISDRWVLTAAHCLLYPPWDKNFTENDLLVRIGKHSRTRYERNIEKISMLEKIYIHPRYNWRENLDRDIALMKLKKPVAFSDYIHPVCLPDRETAASLLQAGYKGRVTGWGNLKET.......GQPSVLQVVNLPIVERPVCKDSTRIRITDNMFCAGYKPDEGKRGDACEGDSGGPFVMKSPFNNRWYQMGIVSWGEGCDRDGKYGFYTHVFRLKKWIQKVIDQFG.

> <s_psp_Homology_Similarity>
0.97

> <s_psp_Homology_Identity>
0.97

> <s_psp_Query_Seq>
MAHVRGLQLPGCLALAALCSLVHSQHVFLAPQQARSLLQRVRRANTFLEEVRKGNLERECVEETCSYEEAFEALESSTATDVFWAKYTACETARTPRDKLAACLEGNCAEGLGTNYRGHVNITRSGIECQLWRSRYPHKPEINSTTHPGADLQENFCRNPDSSTTGPWCYTTDPTVRRQECSIPVCGQDQVTVAMTPRSEGSSVNLSPPLEQCVPDRGQQYQGRLAVTTHGLPCLAWASAQAKALSKHQDFNSAVQLVENFCRNPDGDEEGVWCYVAGKPGDFGYCDLNYCEEAVEEETGDGLDEDSDRAIEGRTATSEYQTFFNPRTFGSGEADCGLRPLFEKKSLEDKTERELLESYIDGRIVEGSDAEIGMSPWQVMLFRKSPQELLCGASLISDRWVLTAAHCLLYPPWDKNFTENDLLVRIGKHSRTRYERNIEKISMLEKIYIHPRYNWRENLDRDIALMKLKKPVAFSDYIHPVCLPDRETAASLLQAGYKGRVTGWGNLKETWTANVGKGQPSVLQVVNLPIVERPVCKDSTRIRITDNMFCAGYKPDEGKRGDACEGDSGGPFVMKSPFNNRWYQMGIVSWGEGCDRDGKYGFYTHVFRLKKWIQKVIDQFGE

> <s_Loopbuilder_WTANVGK_Seq>
WTANVGK

> <s_Loopbuilder_WTANVGK_Homology_Source>
3L91

> <s_Loopbuilder_WTANVGK_Homology_Stemres>
B:241_B:249

> <s_Loopbuilder_WTANVGK_Homology_Loopres>
B:242_B:248

> <s_Loopbuilder_WTANVGK_Homology_Seq>
WNGAMRF

> <r_Loopbuilder_WTANVGK_Homology_Similarity>
0.285714285714286

> <r_Loopbuilder_WTANVGK_Homology_Stem_Dist>
9.7

> <r_Loopbuilder_WTANVGK_Homology_Stem_Beta>
134.67

> <r_Loopbuilder_WTANVGK_Homology_Stem_Gamma>
-163.33

> <s_m_job_name>
homology_modeling_1

> <r_i_Potential_Energy-S-OPLS>
-1246.03363274807

> <r_i_RMS_Derivative-S-OPLS>
0.0947833500612165

> <r_i_Max_Derivative-S-OPLS>
1.44367118406622

> <r_i_Stretch_Energy-S-OPLS>
122.54064988717

> <r_i_Bend_Energy-S-OPLS>
645.577342612013

> <r_i_LJ-14_Energy-S-OPLS>
1450.25622263666

> <r_i_El-14_Energy-S-OPLS>
425.303809830918

> <r_i_Van_der_Waals_Energy-S-OPLS>
-2904.18436741592

> <r_i_Electrostatic_Energy-S-OPLS>
-1629.59326751558

> <r_i_Dihedral_Energy-S-OPLS>
562.749507266179

> <r_i_target_temperature>
298

> <s_m_subgroup_title>
Merged only Chain L 1b-proteinprep_1

> <s_m_subgroupid>
9

> <b_m_subgroup_collapsed>
0

$$$$
